Circuit: *** SPICE deck for cell AndGate{lay} from library Project

Direct Newton iteration for .op point succeeded.

Date: Mon May 29 22:24:00 2023
Total elapsed time: 0.143 seconds.

tnom = 27
temp = 27
method = modified trap
totiter = 2842
traniter = 2824
tranpoints = 1271
accept = 1208
rejected = 63
matrix size = 33
fillins = 0
solver = Normal
Matrix Compiler1: 3.41 KB object code size  1.4/0.7/[0.4]
Matrix Compiler2: 3.77 KB object code size  0.8/1.0/[0.5]

