Circuit: *** SPICE deck for cell D_FlipFlop{lay} from library Project

Direct Newton iteration for .op point succeeded.

Date: Tue May 30 00:11:02 2023
Total elapsed time: 0.205 seconds.

tnom = 27
temp = 27
method = modified trap
totiter = 3517
traniter = 3468
tranpoints = 1396
accept = 1254
rejected = 142
matrix size = 204
fillins = 22
solver = Normal
Thread vector: 52.3/26.2[4] 11.0/4.4[4] 4.2/2.1[4] 1.2/1.8[1]  2592/500
Matrix Compiler1: 30.70 KB object code size  7.6/3.6/[1.6]
Matrix Compiler2: 25.60 KB object code size  3.4/4.5/[1.4]

