Circuit: *** SPICE deck for cell Decoder{lay} from library Project

Direct Newton iteration for .op point succeeded.

Date: Mon May 29 23:43:40 2023
Total elapsed time: 0.100 seconds.

tnom = 27
temp = 27
method = modified trap
totiter = 3037
traniter = 3019
tranpoints = 1312
accept = 1214
rejected = 98
matrix size = 69
fillins = 0
solver = Normal
Matrix Compiler1: 8.11 KB object code size  1.2/0.7/[0.3]
Matrix Compiler2: 8.23 KB object code size  0.6/0.8/[0.4]

