Circuit: *** SPICE deck for cell SRAM{lay} from library Project

Direct Newton iteration for .op point succeeded.

Date: Tue May 30 16:18:33 2023
Total elapsed time: 0.282 seconds.

tnom = 27
temp = 27
method = modified trap
totiter = 8434
traniter = 8391
tranpoints = 3343
accept = 2742
rejected = 601
matrix size = 86
fillins = 2
solver = Normal
Matrix Compiler1: 11.04 KB object code size  1.9/1.1/[0.5]
Matrix Compiler2: 10.38 KB object code size  0.8/1.4/[0.5]

