Circuit: *** SPICE deck for cell SRAM2x2{lay} from library Project

WARNING: Node WL3 is floating.
WARNING: Node Q3_BAR is floating.

WARNING: Less than two connections to node WL0.  This node is used by VIN2.
WARNING: Less than two connections to node Q3_BAR.  This node is used by CLOAD12.
Direct Newton iteration for .op point succeeded.

Date: Tue May 30 17:22:49 2023
Total elapsed time: 0.321 seconds.

tnom = 27
temp = 27
method = modified trap
totiter = 5913
traniter = 5879
tranpoints = 2523
accept = 2163
rejected = 360
matrix size = 216
fillins = 8
solver = Normal
Thread vector: 55.8/30.1[4] 9.6/3.4[4] 4.0/1.9[4] 1.3/1.8[1]  2592/500
Matrix Compiler1: 31.47 KB object code size  5.3/2.9/[1.7]
Matrix Compiler2: 27.02 KB object code size  2.8/4.7/[1.4]

