Circuit: *** SPICE deck for cell System{lay} from library Project

Direct Newton iteration failed to find .op point.  (Use ".option noopiter" to skip.)
Starting Gmin stepping
Gmin = 10
Gmin = 1.07374
Gmin = 0.115292
Gmin = 0.0123794
Gmin = 0.00132923
Gmin = 0.000142725
Gmin = 1.5325e-005
Gmin = 1.6455e-006
Gmin = 1.76685e-007
Gmin = 1.89714e-008
Gmin = 2.03704e-009
Gmin = 2.18725e-010
Gmin = 2.34854e-011
Gmin = 2.52173e-012
Gmin = 2.70769e-013
Gmin = 0
Gmin stepping succeeded in finding the operating point.


Date: Tue May 30 18:05:06 2023
Total elapsed time: 3.472 seconds.

tnom = 27
temp = 27
method = modified trap
totiter = 9770
traniter = 9319
tranpoints = 4103
accept = 3286
rejected = 817
matrix size = 874
fillins = 94
solver = Normal
Thread vector: 226.9/98.4[8] 51.6/22.4[8] 17.9/12.1[8] 6.0/8.0[1]  2592/500
Matrix Compiler1: 166.08 KB object code size  76.9/31.5/[14.8]
Matrix Compiler2: 120.44 KB object code size  30.9/26.3/[10.0]

