Circuit: *** SPICE deck for cell XORgate{lay} from library Project

Direct Newton iteration failed to find .op point.  (Use ".option noopiter" to skip.)
Starting Gmin stepping
Gmin = 10
Gmin = 1.07374
Gmin = 0.115292
Gmin = 0.0123794
Gmin = 0.00132923
Gmin = 0.000142725
Gmin = 1.5325e-005
Gmin = 1.6455e-006
Gmin = 1.76685e-007
Gmin = 1.89714e-008
Gmin = 2.03704e-009
Gmin = 2.18725e-010
Gmin = 2.34854e-011
Gmin = 2.52173e-012
Gmin = 2.70769e-013
Gmin = 0
Gmin stepping succeeded in finding the operating point.


Date: Mon May 29 23:09:33 2023
Total elapsed time: 0.176 seconds.

tnom = 27
temp = 27
method = modified trap
totiter = 3602
traniter = 3184
tranpoints = 1350
accept = 1235
rejected = 115
matrix size = 105
fillins = 0
solver = Normal
Thread vector: 48.1/28.0[2] 3.2/2.9[1] 3.8/3.0[2] 1.3/2.5[1]  2592/500
Matrix Compiler1: 13.67 KB object code size  2.1/1.1/[0.5]
Matrix Compiler2: 12.66 KB object code size  2.4/3.1/[1.0]

