Circuit: * C:\Users\NOR0185869\Documents\ltspice\DE_PROJECT\Inverter\ANDgate.asc

Direct Newton iteration for .op point succeeded.

Date: Sun May 28 21:42:41 2023
Total elapsed time: 0.174 seconds.

tnom = 27
temp = 27
method = modified trap
totiter = 2643
traniter = 2634
tranpoints = 1170
accept = 1137
rejected = 33
matrix size = 35
fillins = 0
solver = Normal
Matrix Compiler1: 3.57 KB object code size  0.7/0.4/[0.3]
Matrix Compiler2: 3.93 KB object code size  0.4/0.5/[0.3]

