Circuit: * C:\Users\NOR0185869\Documents\ltspice\DE_PROJECT\Inverter\Bitwise_XOR.asc

Direct Newton iteration for .op point succeeded.

Date: Sun May 28 21:16:58 2023
Total elapsed time: 0.134 seconds.

tnom = 27
temp = 27
method = modified trap
totiter = 2558
traniter = 2548
tranpoints = 1159
accept = 1132
rejected = 27
matrix size = 45
fillins = 0
solver = Normal
Matrix Compiler1: 4.87 KB object code size  0.8/0.4/[0.2]
Matrix Compiler2: 5.29 KB object code size  0.4/0.5/[0.2]

