Circuit: * C:\Users\NOR0185869\Documents\ltspice\DE_PROJECT\Inverter\D_FF.asc

Direct Newton iteration for .op point succeeded.

Date: Sun May 28 22:31:20 2023
Total elapsed time: 0.286 seconds.

tnom = 27
temp = 27
method = modified trap
totiter = 3291
traniter = 3271
tranpoints = 1204
accept = 1167
rejected = 37
matrix size = 230
fillins = 22
solver = Normal
Thread vector: 66.4/54.0[4] 11.0/7.7[4] 4.3/3.4[3] 1.4/1.9[1]  2592/500
Matrix Compiler1: 31.77 KB object code size  8.0/4.2/[1.8]
Matrix Compiler2: 27.19 KB object code size  3.6/3.9/[1.7]

