Circuit: * C:\Users\NOR0185869\Documents\ltspice\DE_PROJECT\Inverter\Decoder.asc

Direct Newton iteration for .op point succeeded.

Date: Sun May 28 22:36:41 2023
Total elapsed time: 0.142 seconds.

tnom = 27
temp = 27
method = modified trap
totiter = 2912
traniter = 2903
tranpoints = 1159
accept = 1132
rejected = 27
matrix size = 77
fillins = 0
solver = Normal
Matrix Compiler1: 8.50 KB object code size  1.4/0.9/[0.4]
Matrix Compiler2: 8.87 KB object code size  0.7/1.0/[0.4]

