Circuit: * C:\Users\NOR0185869\Documents\ltspice\DE_PROJECT\Inverter\inverter.asc

Direct Newton iteration for .op point succeeded.

Date: Sun May 28 21:11:04 2023
Total elapsed time: 0.161 seconds.

tnom = 27
temp = 27
method = modified trap
totiter = 2464
traniter = 2457
tranpoints = 1161
accept = 1133
rejected = 28
matrix size = 13
fillins = 0
solver = Normal
Matrix Compiler1: 960 bytes object code size  0.2/0.6/[0.1]
Matrix Compiler2: 1.32 KB object code size  0.1/0.2/[0.1]

