Circuit: * C:\Users\NOR0185869\Documents\ltspice\DE_PROJECT\Inverter\NORgate.asc

Direct Newton iteration for .op point succeeded.

Date: Sun May 28 21:50:53 2023
Total elapsed time: 0.099 seconds.

tnom = 27
temp = 27
method = modified trap
totiter = 2558
traniter = 2551
tranpoints = 1170
accept = 1137
rejected = 33
matrix size = 24
fillins = 0
solver = Normal
Matrix Compiler1: 2.23 KB object code size  0.4/0.2/[0.1]
Matrix Compiler2: 2.55 KB object code size  0.2/0.3/[0.1]

