Circuit: * C:\Users\NOR0185869\Documents\ltspice\DE_PROJECT\Inverter\SR_latch.asc

Direct Newton iteration for .op point succeeded.

Date: Sun May 28 22:05:58 2023
Total elapsed time: 0.131 seconds.

tnom = 27
temp = 27
method = modified trap
totiter = 2458
traniter = 2449
tranpoints = 1110
accept = 1095
rejected = 15
matrix size = 108
fillins = 0
solver = Normal
Thread vector: 26.3/18.1[2] 3.0/3.6[1] 1.5/3.7[1] 0.6/1.3[1]  2592/500
Matrix Compiler1: 13.23 KB object code size  2.0/1.3/[0.6]
Matrix Compiler2: 12.41 KB object code size  0.9/1.9/[0.5]

